/*--------------------------------*- C++ -*----------------------------------*\
| =========                 |                                                 |
| \\      /  F ield         | OpenFOAM: The Open Source CFD Toolbox           |
|  \\    /   O peration     | Version:  dev                                   |
|   \\  /    A nd           | Web:      www.OpenFOAM.org                      |
|    \\/     M anipulation  |                                                 |
\*---------------------------------------------------------------------------*/
FoamFile
{
    version     2.0;
    format      ascii;
    class       dictionary;
    location    "constant";
    object      fvOptions;
}
// * * * * * * * * * * * * * * * * * * * * * * * * * * * * * * * * * * * * * //

momentumSource
{
    type            semiImplicitSource;
    selectionMode   all;
    volumeMode      specific;
    sources
    {
        U
        {
            explicit (1.706540308801108e-04 0 0);
            implicit 0;
        }
    }
}
/*
momentumSource
{
    type            vectorCodedSource;
    active          yes;
    name            momentumSource;
    selectionMode   all;
    vectorCodedSourceCoeffs
    {
        selectionMode   all;
        fields (U);
        code
        #{
            /*
            Source term is S = \frac {\rho \nu^2 \Rey_{\tau}^2}{h^3} \hat{\imath}
            \rho        = 1       kg/m^3
            \nu         = 1.74e-7 m^2/s
            \Rey_{\tau} = 395
            h           = 0.03025 m
            S           = 1.706540308801108e-04 kg/m^2/s^2
            //const scalarField& V = mesh_.V();
            const vector u(1.706540308801108e-04, 0, 0)
            vectorField& USource = eqn.source();
            vectorField final(u)
            USource += final;
        #}
    }
}
*/

energySource
{
    type            scalarCodedSource;
    active          yes;
    name            sourceTime;
    selectionMode   all;

    scalarCodedSourceCoeffs
    {
        selectionMode   all;
        fields          (h);

        codeInclude
        #{

        #};

        codeCorrect
        #{
            //Pout<< "**codeCorrect**" << endl;
        #};

        codeAddSup
        #{
            const scalarField& V = mesh_.V();
            const volVectorField& U = mesh().lookupObject<volVectorField>("U");

            scalarField& hSource = eqn.source();
            // Source term is
            // - 2 * rho * c_p /(Re_b * Pr) * v_1 * T_gradient
            // where Re_b = 2 h u_b / nu
            // and T_gradient is the gradient from the boundary condition
            // (together with the sign). Source in the above form and gradient
            // have the opposite sign!)
            // Re_b = 13967
            // Pr = 0.025
            // T_gradient = -3.264462809917355e+02
            hSource += 1.869814740412318e+00*U.component(vector::X)*V;
        #};

        codeSetValue
        #{
            //Pout<< "**codeSetValue**" << endl;
        #};

        code
        #{
            $codeInclude
            $codeCorrect
            $codeAddSup
            $codeSetValue
        #};

        sourceTimeCoeffs
        {
            $scalarCodedSourceCoeffs;
        }
    }

}
